examples/national_grid/data/ireland/models/w07.raw
<!DOCTYPE HTML PUBLIC "-//W3C//DTD HTML 4.0 Transitional//EN">
<!-- saved from url=(0069)http://www.eirgrid.com/EirgridPortal/uploads/Publications/w07_web.raw -->
<HTML><HEAD>
<META http-equiv=Content-Type content="text/html; charset=windows-1252">
<META content="MSHTML 6.00.2900.3492" name=GENERATOR></HEAD>
<BODY><PRE>0,   100.00          / PSS/E-29.4    THU, JUL 22 2004  14:55
ESB NATIONAL GRID FORECAST STATEMENT 2004-2010
BASECASE WINTER 2007/2008
   10,'F_M_____',  38.0000,1,     0.000,     0.000,   1,   1,1.04283, -16.6714,   2
   11,'FMN_LOOP',  38.0000,1,     0.000,     0.000,   1,   1,1.05046, -12.2022,   2
   12,'BEDFORD ',  38.0000,1,     0.000,     0.000,   1,   1,1.03961, -14.9418,   2
   13,'M_R_____',  38.0000,1,     0.000,     0.000,   1,   1,1.03949, -14.2207,   2
   14,'F_I_____',  38.0000,1,     0.000,     0.000,   1,   1,1.03958, -15.2023,   2
   15,'I_M_____',  38.0000,1,     0.000,     0.000,   1,   1,1.05161, -14.7946,   2
   41,'TANEY   ', 110.0000,1,     0.000,     0.000,   1,   1,1.05565,  -8.8401,   1
   51,'MISERY H', 110.0000,1,     0.000,     0.000,   1,   1,1.06395,  -7.2461,   1
   52,'MISERY H',  38.0000,1,     0.000,     0.000,   1,   1,1.06395,  -7.2461,   1
 1021,'ARDNACRU', 110.0000,1,     0.000,     0.000,   7,   1,1.03600,  -7.6229,   1
 1041,'AGHADA  ', 110.0000,1,     0.000,     0.000,   3,   1,1.06410,  -8.8411,   1
 1042,'AGHADA  ', 220.0000,1,     0.000,     0.000,   3,   1,1.07500,  -6.3943,   1
 1061,'ARIGNA  ', 110.0000,1,     0.000,     0.000,   9,   1,1.04722, -10.5298,   2
 1081,'AHANE   ', 110.0000,1,     0.000,     0.000,   7,   1,1.04279,  -7.6868,   2
 1101,'ANNER   ', 110.0000,1,     0.000,     0.000,   5,   3,1.03648, -14.4069,   5
 1121,'ARKLOW  ', 110.0000,1,     0.000,     0.000,   6,   1,1.06525,  -8.0450,   1
 1122,'ARKLOW  ', 220.0000,1,     0.000,     0.000,   6,   1,1.06114,  -5.9598,   1
 1141,'ATHLONE ', 110.0000,1,     0.000,     0.000,   8,   1,1.06235,  -9.2151,   1
 1151,'ARKLOW B', 110.0000,2,     0.000,     0.000,   6,   1,1.06850,  -7.7866,   1
 1161,'AUGHINIS', 110.0000,1,     0.000,     0.000,   7,   3,1.07500,  -1.3363,   1
 1171,'SEALROCK', 110.0000,1,     0.000,     0.000,   7,   1,1.07581,  -1.2848,   1
 1181,'ARVA    ', 110.0000,1,     0.000,     0.000,  10,   1,1.03433, -11.5152,   1
 1191,'SEALROCK', 110.0000,1,     0.000,     0.000,   7,   1,1.07581,  -1.2848,   1
 1201,'ARTANE  ', 110.0000,1,     0.000,     0.000,   1,   1,1.05362,  -8.9288,   2
 1221,'ATHY    ', 110.0000,1,     0.000,     0.000,   8,   1,1.04278,  -9.3997,   1
 1231,'BALLYWAT', 110.0000,2,     0.000,     0.000,   6,   1,1.04247, -11.3899,   1
 1251,'BOOLTIAG', 110.0000,2,     0.000,     0.000,   7,   1,1.01350,  -8.1823,   1
 1281,'BALLYLIC', 110.0000,1,     0.000,     0.000,   3,   1,1.04656, -11.0894,   2
 1301,'BALLYBEG', 110.0000,1,     0.000,     0.000,   6,   1,1.06167,  -8.2172,   1
 1321,'BLAKE   ', 110.0000,1,     0.000,     0.000,   8,   1,1.03507,  -8.6843,   2
 1341,'BINBANE ', 110.0000,1,     0.000,     0.000,   9,   1,1.01744, -13.4688,   2
 1361,'BALLYDIN', 110.0000,1,     0.000,     0.000,   5,   1,1.03981, -13.6124,   1
 1381,'BARNAHEL', 110.0000,1,     0.000,     0.000,   3,   1,1.06562,  -9.8457,   1
 1401,'BELLACOR', 110.0000,1,     0.000,     0.000,   9,   1,1.04500, -13.9577,   1
 1421,'BLACKROC', 110.0000,1,     0.000,     0.000,   2,   2,1.06610,  -7.5652,   2
 1441,'BANDON  ', 110.0000,1,     0.000,     0.000,   3,   1,1.05074, -11.2872,   1
 1461,'BARRYMOR', 110.0000,1,     0.000,     0.000,   5,   1,1.04958, -11.5337,   2
 1481,'BUTLERST', 110.0000,1,     0.000,     0.000,   5,   1,1.04342, -12.3057,   1
 1501,'BRINNY  ', 110.0000,1,     0.000,     0.000,   3,   1,1.05060, -11.2956,   5
 1511,'BRINNY  ', 110.0000,1,     0.000,     0.000,   3,   1,1.05060, -11.2952,   5
 1541,'BANOGE  ', 110.0000,1,     0.000,     0.000,   6,   1,1.04801, -10.0741,   1
 1581,'CABRA   ', 110.0000,1,     0.000,     0.000,   1,   2,1.05296,  -8.9583,   2
 1601,'CLASHAVO', 110.0000,1,     0.000,     0.000,   3,   1,1.05594,  -8.3083,   1
 1602,'CLASHAVO', 220.0000,1,     0.000,     0.000,   3,   1,1.06383,  -4.7188,   1
 1621,'COOLROE ', 110.0000,1,     0.000,     0.000,   3,   1,1.05704,  -9.9207,   1
 1631,'CORDERRY', 110.0000,1,     0.000,     0.000,   9,   1,1.04582, -10.7623,   1
 1641,'CASHLA  ', 110.0000,1,     0.000,     0.000,   9,   1,1.05992,  -5.3618,   1
 1642,'CASHLA  ', 220.0000,1,     0.000,     0.000,   9,   1,1.05499,  -1.0030,   1
 1661,'CASTLEBA', 110.0000,1,     0.000,     0.000,   9,   1,1.05880, -13.1783,   1
 1681,'CARRIGAD', 110.0000,1,     0.000,     0.000,   3,   1,1.05700,  -9.4048,   1
 1701,'CATH_FAL', 110.0000,1,     0.000,     0.000,   9,   1,1.05000, -12.1206,   1
 1721,'CAHIR   ', 110.0000,1,     0.000,     0.000,   5,   1,1.04368, -14.0293,   1
 1741,'CARRICKM', 110.0000,1,     0.000,     0.000,   2,   2,1.06756,  -7.4328,   2
 1742,'CARRICKM', 220.0000,1,     0.000,     0.000,   2,   2,1.07136,  -3.4885,   1
 1761,'CLIFF   ', 110.0000,1,     0.000,     0.000,   9,   1,1.05212, -11.9486,   1
 1781,'CASTLEFA', 110.0000,1,     0.000,     0.000,   7,   3,1.07461,  -1.3544,   5
 1791,'CASTLEFA', 110.0000,1,     0.000,     0.000,   7,   3,1.07461,  -1.3544,   5
 1801,'COOKSTOW', 110.0000,1,     0.000,     0.000,   1,   2,1.05057,  -8.8762,   2
 1821,'CLOON   ', 110.0000,1,     0.000,     0.000,   9,   1,1.04919,  -8.3148,   2
 1841,'CRANE   ', 110.0000,1,     0.000,     0.000,   6,   1,1.03855, -11.8293,   1
 1861,'CARRICK ', 110.0000,1,     0.000,     0.000,   9,   1,1.05068, -10.2886,   1
 1871,'COLLEGE ', 110.0000,1,     0.000,     0.000,   2,   1,1.05816,  -7.1498,   1
 1881,'CHARLEVI', 110.0000,1,     0.000,     0.000,   3,   1,1.01872, -10.3525,   1
 1901,'CARLOW  ', 110.0000,1,     0.000,     0.000,   8,   1,1.05279,  -9.8535,   1
 1921,'COW CROS', 110.0000,1,     0.000,     0.000,   3,   1,1.06343,  -9.7605,   1
 1931,'CUNGHILL', 110.0000,1,     0.000,     0.000,   9,   1,1.03844, -12.3177,   4
 1941,'CUSHALIN', 110.0000,1,     0.000,     0.000,   8,   1,1.07500,  -5.0755,   1
 1961,'CASTLEVI', 110.0000,1,     0.000,     0.000,   3,   1,1.06219,  -9.7734,   1
 1981,'CORRACLA', 110.0000,1,     0.000,     0.000,   9,   1,1.04579, -12.4403,   1
 2001,'CULLENAG', 110.0000,1,     0.000,     0.000,   5,   1,1.05212, -11.7873,   1
 2002,'CULLENAG', 220.0000,1,     0.000,     0.000,   5,   1,1.04809,  -8.4849,   1
 2021,'CITY WES', 110.0000,1,     0.000,     0.000,   1,   1,1.05236,  -8.7854,   2
 2041,'CORDUFF ', 110.0000,1,     0.000,     0.000,   2,   1,1.05908,  -7.0724,   1
 2042,'CORDUFF ', 220.0000,1,     0.000,     0.000,   2,   1,1.07029,  -3.8183,   1
 2081,'DUNKETTL', 110.0000,1,     0.000,     0.000,   3,   1,1.06219,  -9.7734,   5
 2101,'DUNDALK ', 110.0000,1,     0.000,     0.000,  10,   1,1.03133, -10.7232,   1
 2121,'DRUMLINE', 110.0000,1,     0.000,     0.000,   7,   1,1.01647,  -8.4559,   1
 2141,'DUNGARVA', 110.0000,1,     0.000,     0.000,   5,   1,1.03787, -12.0986,   1
 2161,'DOON    ', 110.0000,1,     0.000,     0.000,   5,   1,1.03706, -14.3728,   1
 2181,'DRYBRIDG', 110.0000,1,     0.000,     0.000,  10,   1,1.03709, -10.0446,   1
 2202,'DUNSTOWN', 220.0000,1,     0.000,     0.000,   2,   1,1.07237,  -3.0734,   1
 2204,'DUNSTOWN', 380.0000,1,     0.000,     0.000,   2,   1,1.02171,   1.3154,   1
 2221,'DUNMANWA', 110.0000,1,     0.000,     0.000,   3,   1,1.04709, -11.0763,   1
 2231,'DERRYBRI', 110.0000,2,     0.000,     0.000,   9,   1,1.04496,  -6.3244,   1
 2241,'DALLOW  ', 110.0000,1,     0.000,     0.000,   5,   1,1.04544,  -7.3425,   2
 2261,'DERRYIRO', 110.0000,1,     0.000,     0.000,   2,   1,1.02591,  -9.9378,   1
 2281,'DALTON  ', 110.0000,1,     0.000,     0.000,   9,   1,1.05763, -11.3086,   1
 2301,'DUNFIRTH', 110.0000,1,     0.000,     0.000,   2,   1,1.03603,  -9.2012,   2
 2321,'DRUMKEEN', 110.0000,1,     0.000,     0.000,   9,   1,1.04550, -13.9559,   1
 2361,'ENNIS   ', 110.0000,1,     0.000,     0.000,   7,   1,1.01577,  -8.2201,   1
 2481,'FASS EAS', 110.0000,1,     0.000,     0.000,   2,   2,1.06023,  -7.7972,   2
 2491,'FASS WES', 110.0000,1,     0.000,     0.000,   2,   2,1.06000,  -7.7941,   2
 2521,'FLAGFORD', 110.0000,1,     0.000,     0.000,   9,   1,1.05367, -10.1254,   1
 2522,'FLAGFORD', 220.0000,1,     0.000,     0.000,   9,   1,1.02154,  -7.2017,   1
 2541,'FRN ST A', 110.0000,1,     0.000,     0.000,   1,   2,1.06234,  -7.3549,   2
 2551,'FRN ST B', 110.0000,1,     0.000,     0.000,   1,   2,1.05812,  -8.4494,   2
 2561,'FIN_URBA', 110.0000,1,     0.000,     0.000,   2,   2,1.05605,  -8.7303,   1
 2562,'FINGLAS ', 220.0000,1,     0.000,     0.000,   2,   2,1.07221,  -3.6815,   1
 2571,'FIN_RURA', 110.0000,1,     0.000,     0.000,   2,   2,1.05777,  -7.1867,   1
 2681,'GILRA   ', 110.0000,1,     0.000,     0.000,   9,   3,1.05487, -10.4272,   2
 2701,'GLASMORE', 110.0000,1,     0.000,     0.000,   2,   2,1.03892,  -9.8764,   2
 2721,'GRIFFINR', 110.0000,1,     0.000,     0.000,   2,   2,1.05085,  -8.0803,   2
 2731,'GRIFFINR', 110.0000,1,     0.000,     0.000,   2,   1,1.05147,  -8.0526,   2
 2741,'GREAT IS', 110.0000,1,     0.000,     0.000,   6,   1,1.05132, -11.7441,   1
 2742,'GREAT IS', 220.0000,1,     0.000,     0.000,   6,   1,1.05000,  -7.8825,   1
 2761,'GRANGE  ', 110.0000,1,     0.000,     0.000,   1,   2,1.05366,  -8.9477,   2
 2781,'GALWAY  ', 110.0000,1,     0.000,     0.000,   9,   1,1.04346,  -6.1003,   1
 2801,'GOLAGH  ', 110.0000,1,     0.000,     0.000,   9,   1,1.04685, -12.9013,   1
 2821,'GORTAWEE', 110.0000,1,     0.000,     0.000,   9,   1,1.04421, -12.4836,   1
 2841,'GORMAN  ', 110.0000,1,     0.000,     0.000,  10,   1,1.05385, -10.1898,   1
 2842,'GORMAN  ', 220.0000,1,     0.000,     0.000,  10,   1,1.02332,  -6.7782,   1
 2861,'GRANGE C', 110.0000,1,     0.000,     0.000,   1,   1,1.05537,  -8.6990,   2
 2881,'GLENLARA', 110.0000,1,     0.000,     0.000,   3,   1,1.00663, -11.0303,   2
 2921,'HAULBOWL', 110.0000,1,     0.000,     0.000,   3,   3,1.06684,  -9.7765,   5
 2931,'HAULBOWL', 110.0000,1,     0.000,     0.000,   3,   3,1.06564,  -9.8460,   5
 2941,'HAROLDS ', 110.0000,1,     0.000,     0.000,   1,   2,1.06296,  -7.3112,   2
 2962,'HUNTSTOW', 220.0000,1,     0.000,     0.000,   2,   1,1.07288,  -3.5822,   1
 2981,'HARNETTS', 110.0000,1,     0.000,     0.000,   3,   1,1.05593,  -9.4695,   2
 3061,'INISCARR', 110.0000,1,     0.000,     0.000,   3,   1,1.06000,  -9.6489,   1
 3081,'INCHICOR', 110.0000,1,     0.000,     0.000,   1,   2,1.06112,  -8.2561,   2
 3082,'INCHICOR', 220.0000,1,     0.000,     0.000,   2,   2,1.07203,  -3.8772,   1
 3101,'IKERRIN ', 110.0000,1,     0.000,     0.000,   5,   1,1.01631, -12.7467,   2
 3122,'IRISHTOW', 220.0000,1,     0.000,     0.000,   2,   1,1.07493,  -3.0637,   1
 3201,'KNOCKRAH', 110.0000,1,     0.000,     0.000,   3,   1,1.06366,  -9.6421,   1
 3202,'KNOCKRAH', 220.0000,1,     0.000,     0.000,   3,   1,1.06500,  -6.8784,   1
 3221,'KILBARRY', 110.0000,1,     0.000,     0.000,   3,   1,1.05451, -10.2354,   1
 3241,'KILTEEL ', 110.0000,1,     0.000,     0.000,   8,   1,1.03508,  -8.7406,   2
 3261,'KILKENNY', 110.0000,1,     0.000,     0.000,   8,   1,1.00194, -13.0241,   1
 3281,'KILLONAN', 110.0000,1,     0.000,     0.000,   7,   1,1.04325,  -7.6507,   1
 3282,'KILLONAN', 220.0000,1,     0.000,     0.000,   7,   1,1.05247,  -4.0930,   1
 3301,'KNOCKERA', 110.0000,1,     0.000,     0.000,   7,   1,1.03177,  -7.1880,   1
 3321,'KNOCKUMB', 110.0000,1,     0.000,     0.000,  10,   3,1.04539, -10.6519,   5
 3341,'KELLIS  ', 110.0000,1,     0.000,     0.000,   8,   1,1.05775,  -9.7477,   1
 3342,'KELLIS  ', 220.0000,1,     0.000,     0.000,   8,   1,1.04104,  -6.6139,   1
 3361,'KILTOY  ', 110.0000,1,     0.000,     0.000,   9,   3,1.04052, -14.6678,   5
 3371,'KILTOY  ', 110.0000,1,     0.000,     0.000,   9,   3,1.04043, -14.6729,   5
 3381,'KINNEGAD', 110.0000,1,     0.000,     0.000,   2,   1,1.02820,  -9.8163,   1
 3401,'KILLOTER', 110.0000,1,     0.000,     0.000,   5,   1,1.04435, -12.2505,   1
 3421,'KILMORE ', 110.0000,1,     0.000,     0.000,   1,   1,1.05469,  -8.8687,   2
 3441,'KILMURRY', 110.0000,1,     0.000,     0.000,   8,   1,1.04114, -12.1085,   1
 3501,'LANESBOR', 110.0000,1,     0.000,     0.000,   9,   1,1.05000,  -8.7817,   1
 3521,'LOUTH   ', 110.0000,1,     0.000,     0.000,  10,   1,1.05401,  -9.6220,   1
 3522,'LOUTH   ', 220.0000,1,     0.000,     0.000,  10,   1,1.02109,  -7.2999,   1
 3541,'LIMERICK', 110.0000,1,     0.000,     0.000,   7,   1,1.03525,  -7.3302,   1
 3561,'LISDRUM ', 110.0000,1,     0.000,     0.000,  10,   1,1.01964, -11.5849,   1
 3581,'LETTERKE', 110.0000,1,     0.000,     0.000,   9,   1,1.04162, -14.5998,   1
 3601,'LIBERTY ', 110.0000,1,     0.000,     0.000,   3,   1,1.05770, -10.1406,   2
 3611,'LIBERTY ', 110.0000,1,     0.000,     0.000,   3,   1,1.05798, -10.1313,   2
 3621,'LISHEEN ', 110.0000,1,     0.000,     0.000,   5,   1,1.01421, -14.8440,   1
 3761,'MACETOWN', 110.0000,1,     0.000,     0.000,   2,   2,1.05478,  -7.4229,   1
 3781,'MCDERMOT', 110.0000,1,     0.000,     0.000,   1,   2,1.05259,  -8.9778,   2
 3801,'MIDLETON', 110.0000,1,     0.000,     0.000,   3,   1,1.05742,  -9.7642,   1
 3821,'MEATH HI', 110.0000,1,     0.000,     0.000,  10,   1,1.04027, -10.2693,   2
 3841,'MAYNOOTH', 110.0000,1,     0.000,     0.000,   2,   2,1.05302,  -7.8922,   1
 3842,'MAYNOOTH', 220.0000,1,     0.000,     0.000,   2,   2,1.06445,  -4.1953,   1
 3861,'MILLTOWN', 110.0000,1,     0.000,     0.000,   1,   2,1.06434,  -7.1889,   2
 3871,'MILLTOWN', 110.0000,1,     0.000,     0.000,   1,   2,1.05612,  -8.8099,   2
 3881,'MACROOM ', 110.0000,1,     0.000,     0.000,   3,   1,1.05687,  -9.3917,   1
 3901,'MONETEEN', 110.0000,1,     0.000,     0.000,   7,   1,1.04131,  -6.3101,   1
 3941,'MONEYPOI', 110.0000,1,     0.000,     0.000,   7,   1,1.00916,  -8.3964,   1
 3942,'MONEYPOI', 220.0000,1,     0.000,     0.000,   7,   1,1.07122,   4.2351,   1
 3944,'MNYPG1G3', 380.0000,1,     0.000,     6.000,   2,   1,1.07500,   8.0336,   1
 3954,'MNYPG2  ', 380.0000,1,     0.000,     6.000,   7,   1,1.07500,   8.9629,   1
 3961,'MARINA  ', 110.0000,1,     0.000,     0.000,   3,   1,1.05800, -10.1271,   1
 3981,'MUNGRET ', 110.0000,1,     0.000,     0.000,   7,   3,1.04111,  -6.3212,   5
 3991,'MUNGRET ', 110.0000,1,     0.000,     0.000,   7,   3,1.04112,  -6.3207,   5
 4001,'MULLINGA', 110.0000,1,     0.000,     0.000,   9,   1,1.01075, -10.2767,   1
 4021,'MALLOW  ', 110.0000,1,     0.000,     0.000,   3,   1,1.02759, -10.7735,   1
 4041,'MOY     ', 110.0000,1,     0.000,     0.000,   9,   1,1.03758, -14.4369,   1
 4061,'MULLAGHA', 110.0000,1,     0.000,     0.000,  10,   1,1.03863, -10.3744,   2
 4071,'MEENTYCA', 110.0000,2,     0.000,     0.000,   9,   1,1.04736, -13.7330,   1
 4081,'MONREAD ', 110.0000,1,     0.000,     0.000,   8,   1,1.03353,  -8.7439,   1
 4201,'NEWBRIDG', 110.0000,1,     0.000,     0.000,   8,   1,1.03541,  -8.4781,   1
 4221,'NAVAN   ', 110.0000,1,     0.000,     0.000,  10,   1,1.04888, -10.4471,   1
 4242,'NORTH WA', 220.0000,1,     0.000,     0.000,   2,   2,1.07509,  -3.6910,   1
 4261,'NENAGH  ', 110.0000,1,     0.000,     0.000,   7,   1,1.02369,  -8.7000,   1
 4281,'NANGOR  ', 110.0000,1,     0.000,     0.000,   1,   1,1.05513,  -8.7158,   1
 4341,'OLDCOURT', 110.0000,1,     0.000,     0.000,   3,   3,1.06343,  -9.7606,   5
 4351,'OLDCOURT', 110.0000,1,     0.000,     0.000,   3,   3,1.06343,  -9.7606,   5
 4361,'OUGHTRAG', 110.0000,1,     0.000,     0.000,   7,   1,1.03074,  -5.8403,   2
 4382,'OLDSTREE', 220.0000,1,     0.000,     0.000,   9,   1,1.07090,   4.7477,   1
 4384,'OLDSTREE', 380.0000,1,     0.000,     0.000,   9,   1,1.06048,   4.7539,   1
 4441,'POLLAPHU', 110.0000,1,     0.000,     0.000,   8,   1,1.07000,  -8.5700,   1
 4451,'POOLBEG ', 110.0000,1,     0.000,     0.000,   1,   1,1.06545,  -7.1135,   2
 4461,'POOLBEG ', 110.0000,1,     0.000,     0.000,   1,   1,1.06590,  -7.0034,   2
 4462,'POOLBEG ', 220.0000,1,     0.000,     0.000,   2,   2,1.07500,  -3.7570,   1
 4471,'POOLBEG ', 110.0000,1,     0.000,     0.000,   1,   1,1.06589,  -7.0068,   2
 4481,'PORTLAOI', 110.0000,1,     0.000,     0.000,   8,   1,1.04397,  -8.2561,   1
 4501,'PLATIN  ', 110.0000,1,     0.000,     0.000,  10,   3,1.03979,  -9.8473,   1
 4522,'PROSPECT', 220.0000,1,     0.000,     0.000,   7,   1,1.07322,   3.0141,   1
 4621,'RYEBROOK', 110.0000,1,     0.000,     0.000,   2,   3,1.04424,  -8.3683,   1
 4651,'RINGSEND', 110.0000,1,     0.000,     0.000,   1,   2,1.06544,  -7.1133,   2
 4681,'RATHKEAL', 110.0000,1,     0.000,     0.000,   7,   1,1.03678,  -5.0602,   1
 4701,'RICHMOND', 110.0000,1,     0.000,     0.000,   9,   1,1.03489,  -9.4729,   2
 4721,'RAFFEEN ', 110.0000,1,     0.000,     0.000,   3,   1,1.06682,  -9.7761,   1
 4722,'RAFFEEN ', 220.0000,1,     0.000,     0.000,   3,   1,1.06742,  -7.4857,   1
 4741,'RINAWADE', 110.0000,1,     0.000,     0.000,   2,   3,1.04691,  -8.3052,   1
 4761,'RINGASKI', 110.0000,1,     0.000,     0.000,   3,   1,1.06648,  -9.7944,   2
 4781,'RATRUSSA', 110.0000,1,     0.000,     0.000,  10,   1,1.03073, -10.4530,   1
 4901,'SHELTON ', 110.0000,1,     0.000,     0.000,   6,   3,1.06525,  -8.0451,   5
...
0 / END OF BUS DATA, BEGIN LOAD DATA
   10,'LD',1,   1,   1,   106.840,    32.510,     0.000,     0.000,     0.000,     0.000,   2
   11,'LD',1,   1,   1,    85.400,    16.630,     0.000,     0.000,     0.000,     0.000,   2
   12,'LD',1,   1,   1,    97.180,    15.900,     0.000,     0.000,     0.000,     0.000,   2
   13,'LD',1,   1,   1,    89.640,    23.910,     0.000,     0.000,     0.000,     0.000,   2
   14,'LD',1,   1,   1,    93.650,    22.490,     0.000,     0.000,     0.000,     0.000,   2
   15,'LD',1,   1,   1,   100.720,    15.300,     0.000,     0.000,     0.000,     0.000,   2
   41,'LD',1,   1,   1,    17.380,     6.910,     0.000,     0.000,     0.000,     0.000,   2
   51,'LD',1,   1,   1,     6.830,     2.130,     0.000,     0.000,     0.000,     0.000,   2
 1101,'LD',1,   5,   2,    11.000,     3.850,     0.000,     0.000,     0.000,     0.000,   5
 1101,'MI',0,   5,   2,     6.500,     1.950,     0.000,     0.000,     0.000,     0.000,   5
 1871,'LD',1,   2,   2,    16.000,     5.250,     0.000,     0.000,     0.000,     0.000,   5
 2821,'LD',1,   9,   2,    16.000,     5.550,     0.000,     0.000,     0.000,     0.000,   5
 2821,'MI',0,   9,   2,     6.000,     1.800,     0.000,     0.000,     0.000,     0.000,   5
 3321,'LD',1,  10,   2,    22.000,     7.480,     0.000,     0.000,     0.000,     0.000,   5
 3321,'MI',0,  10,   2,     1.000,     0.300,     0.000,     0.000,     0.000,     0.000,   5
 3421,'LD',1,   1,   2,    12.000,     4.060,     0.000,     0.000,     0.000,     0.000,   5
 3621,'LD',1,   5,   2,    15.000,     4.930,     0.000,     0.000,     0.000,     0.000,   5
 3621,'MI',0,   5,   2,     2.000,     0.600,     0.000,     0.000,     0.000,     0.000,   5
 4501,'LD',1,  10,   2,    27.000,     9.170,     0.000,     0.000,     0.000,     0.000,   5
 4501,'MI',0,  10,   2,     6.500,     1.950,     0.000,     0.000,     0.000,     0.000,   5
 5031,'LD',1,   2,   1,    14.140,     6.860,     0.000,     0.000,     0.000,     0.000,   2
10204,'LD',1,   7,   1,    26.500,     8.250,     0.000,     0.000,     0.000,     0.000,   2
10205,'LD',1,   7,   1,    35.000,    11.990,     0.000,     0.000,     0.000,     0.000,   2
10471,'HL',1,   3,   1,    11.020,     3.960,     0.000,     0.000,     0.000,     0.000,   3
10602,'LD',1,   9,   1,     3.420,     1.530,     0.000,     0.000,     0.000,     0.000,   2
10801,'LD',1,   7,   1,     6.130,     2.000,     0.000,     0.000,     0.000,     0.000,   2
11204,'LD',1,   6,   1,    30.660,    12.650,     0.000,     0.000,     0.000,     0.000,   2
11404,'LD',1,   9,   1,    65.500,    20.730,     0.000,     0.000,     0.000,     0.000,   2
11671,'HL',1,   7,   1,     1.530,     0.550,     0.000,     0.000,     0.000,     0.000,   1
11672,'HL',1,   7,   1,     1.530,     0.550,     0.000,     0.000,     0.000,     0.000,   4
12001,'LD',1,   1,   1,    13.550,     3.390,     0.000,     0.000,     0.000,     0.000,   2
12202,'LD',1,   8,   1,    16.280,     5.380,     0.000,     0.000,     0.000,     0.000,   2
12804,'LD',1,   3,   1,    15.310,     4.710,     0.000,     0.000,     0.000,     0.000,   2
13001,'LD',1,   6,   1,    18.240,     7.210,     0.000,     0.000,     0.000,     0.000,   2
13204,'LD',1,   8,   1,    25.800,     7.590,     0.000,     0.000,     0.000,     0.000,   2
13404,'LD',1,   9,   1,    28.380,    12.250,     0.000,     0.000,     0.000,     0.000,   2
13601,'LD',1,   5,   2,     5.900,     1.930,     0.000,     0.000,     0.000,     0.000,   5
13601,'MI',0,   5,   2,     1.590,     0.470,     0.000,     0.000,     0.000,     0.000,   5
13604,'LD',1,   5,   1,     5.410,     2.000,     0.000,     0.000,     0.000,     0.000,   2
13802,'LD',1,   3,   1,    26.860,     8.720,     0.000,     0.000,     0.000,     0.000,   2
13804,'LD',1,   3,   1,    27.330,     8.480,     0.000,     0.000,     0.000,     0.000,   2
14002,'LD',1,   9,   1,     4.820,     1.650,     0.000,     0.000,     0.000,     0.000,   2
14204,'LD',1,   2,   1,    67.090,    10.480,     0.000,     0.000,     0.000,     0.000,   2
14401,'LD',1,   3,   1,    10.960,     3.190,     0.000,     0.000,     0.000,     0.000,   2
14404,'LD',1,   3,   1,    22.380,     8.350,     0.000,     0.000,     0.000,     0.000,   2
14604,'LD',1,   5,   1,    28.270,    10.600,     0.000,     0.000,     0.000,     0.000,   2
14804,'LD',1,   5,   1,    42.170,     9.900,     0.000,     0.000,     0.000,     0.000,   2
15001,'LD',1,   3,   2,     4.200,     1.380,     0.000,     0.000,     0.000,     0.000,   5
15001,'MI',0,   3,   2,     2.290,     0.680,     0.000,     0.000,     0.000,     0.000,   5
15401,'LD',1,   6,   1,    16.470,     4.430,     0.000,     0.000,     0.000,     0.000,   2
15801,'LD',1,   1,   1,    18.140,     5.890,     0.000,     0.000,     0.000,     0.000,   2
16202,'LD',1,   3,   1,     8.470,     2.830,     0.000,     0.000,     0.000,     0.000,   2
16604,'LD',1,   9,   1,    62.500,    20.440,     0.000,     0.000,     0.000,     0.000,   2
17004,'LD',1,   9,   1,    18.850,     6.240,     0.000,     0.000,     0.000,     0.000,   2
17204,'LD',1,   5,   1,    29.520,     9.870,     0.000,     0.000,     0.000,     0.000,   2
17404,'LD',1,   2,   1,    98.480,    20.380,     0.000,     0.000,     0.000,     0.000,   2
17802,'LD',1,   7,   2,    44.000,    14.460,     0.000,     0.000,     0.000,     0.000,   5
17802,'MI',0,   7,   2,     5.000,     1.500,     0.000,     0.000,     0.000,     0.000,   5
18004,'LD',1,   1,   1,   102.720,    28.860,     0.000,     0.000,     0.000,     0.000,   2
18204,'LD',1,   9,   1,    22.850,     5.850,     0.000,     0.000,     0.000,     0.000,   2
18402,'LD',1,   6,   1,     4.710,     1.530,     0.000,     0.000,     0.000,     0.000,   2
18404,'LD',1,   6,   1,    17.450,     5.510,     0.000,     0.000,     0.000,     0.000,   2
18604,'LD',1,   9,   1,    40.440,    15.630,     0.000,     0.000,     0.000,     0.000,   2
18804,'LD',1,   3,   1,    21.670,     7.880,     0.000,     0.000,     0.000,     0.000,   2
19004,'LD',1,   8,   1,    52.730,    19.440,     0.000,     0.000,     0.000,     0.000,   2
19204,'LD',1,   3,   1,    21.790,     2.830,     0.000,     0.000,     0.000,     0.000,   2
19471,'HL',1,   8,   1,    11.670,     4.200,     0.000,     0.000,     0.000,     0.000,   4
19601,'LD',1,   3,   1,    11.780,     3.890,     0.000,     0.000,     0.000,     0.000,   2
20201,'LD',1,   1,   1,     8.720,     2.830,     0.000,     0.000,     0.000,     0.000,   2
21004,'LD',1,  10,   1,    76.450,    24.270,     0.000,     0.000,     0.000,     0.000,   2
21204,'LD',1,   7,   1,    37.700,    10.720,     0.000,     0.000,     0.000,     0.000,   2
21404,'LD',1,   5,   1,    35.580,     9.540,     0.000,     0.000,     0.000,     0.000,   2
21604,'LD',1,   5,   1,    36.640,     5.650,     0.000,     0.000,     0.000,     0.000,   2
21804,'LD',1,  10,   1,    80.560,    23.800,     0.000,     0.000,     0.000,     0.000,   2
22204,'LD',1,   3,   1,    32.160,    10.120,     0.000,     0.000,     0.000,     0.000,   2
22404,'LD',1,   5,   1,    14.960,     4.950,     0.000,     0.000,     0.000,     0.000,   2
22804,'LD',1,   9,   1,    19.790,     6.400,     0.000,     0.000,     0.000,     0.000,   2
23001,'LD',1,   2,   1,     8.600,     2.900,     0.000,     0.000,     0.000,     0.000,   2
23604,'LD',1,   7,   1,    67.260,    22.850,     0.000,     0.000,     0.000,     0.000,   2
24804,'LD',1,   2,   1,    69.150,    22.370,     0.000,     0.000,     0.000,     0.000,   2
25604,'LD',1,   2,   1,   115.090,    28.740,     0.000,     0.000,     0.000,     0.000,   2
26802,'LD',1,   9,   2,    12.000,     3.940,     0.000,     0.000,     0.000,     0.000,   5
26802,'MI',0,   9,   2,     2.000,     0.600,     0.000,     0.000,     0.000,     0.000,   5
27004,'LD',1,   2,   1,    58.070,     9.600,     0.000,     0.000,     0.000,     0.000,   2
27204,'LD',1,   2,   1,    75.030,     4.710,     0.000,     0.000,     0.000,     0.000,   2
27404,'LD',1,   6,   1,    22.380,     9.420,     0.000,     0.000,     0.000,     0.000,   2
27471,'HL',0,   6,   1,     3.000,     1.080,     0.000,     0.000,     0.000,     0.000,   3
27472,'HL',0,   6,   1,     3.000,     1.080,     0.000,     0.000,     0.000,     0.000,   3
27473,'HL',1,   6,   1,     6.460,     2.320,     0.000,     0.000,     0.000,     0.000,   3
27604,'LD',1,   1,   1,    56.540,    18.610,     0.000,     0.000,     0.000,     0.000,   2
27802,'LD',1,   9,   1,    14.140,     4.710,     0.000,     0.000,     0.000,     0.000,   2
27804,'LD',1,   9,   1,   147.720,    46.880,     0.000,     0.000,     0.000,     0.000,   2
28604,'LD',1,   1,   1,    15.040,     4.190,     0.000,     0.000,     0.000,     0.000,   2
28804,'LD',1,   3,   1,    14.160,     4.990,     0.000,     0.000,     0.000,     0.000,   2
29401,'LD',1,   1,   1,    19.080,     6.240,     0.000,     0.000,     0.000,     0.000,   2
29671,'HL',1,   2,   2,     6.900,     2.480,     0.000,     0.000,     0.000,     0.000,   4
29801,'LD',1,   3,   1,    10.500,     1.180,     0.000,     0.000,     0.000,     0.000,   2
30804,'LD',1,   1,   1,    87.210,    18.640,     0.000,     0.000,     0.000,     0.000,   2
31004,'LD',1,   5,   1,    30.630,    10.010,     0.000,     0.000,     0.000,     0.000,   2
31271,'HL',1,   2,   2,     6.980,     2.510,     0.000,     0.000,     0.000,     0.000,   4
32201,'LD',1,   3,   1,    16.260,     5.300,     0.000,     0.000,     0.000,     0.000,   2
32204,'LD',1,   3,   1,   101.660,    18.260,     0.000,     0.000,     0.000,     0.000,   2
32404,'LD',1,   8,   1,    23.800,     9.350,     0.000,     0.000,     0.000,     0.000,   2
32604,'LD',1,   8,   1,    77.510,    25.680,     0.000,     0.000,     0.000,     0.000,   2
33004,'LD',1,   7,   1,    37.140,     9.410,     0.000,     0.000,     0.000,     0.000,   2
33601,'LD',1,   9,   2,    18.000,     5.910,     0.000,     0.000,     0.000,     0.000,   5
33601,'MI',0,   9,   2,     4.000,     1.200,     0.000,     0.000,     0.000,     0.000,   5
33801,'LD',1,   2,   2,     7.700,     2.530,     0.000,     0.000,     0.000,     0.000,   5
33801,'MI',0,   2,   2,     2.290,     0.680,     0.000,     0.000,     0.000,     0.000,   5
34001,'LD',1,   5,   1,    11.780,     2.360,     0.000,     0.000,     0.000,     0.000,   2
34404,'LD',1,   8,   1,    22.380,     7.300,     0.000,     0.000,     0.000,     0.000,   2
35004,'LD',1,   9,   1,    15.310,     5.070,     0.000,     0.000,     0.000,     0.000,   2
35078,'HL',1,   9,   3,     8.600,     3.090,     0.000,     0.000,     0.000,     0.000,   3
35404,'LD',1,   7,   1,   103.900,    32.040,     0.000,     0.000,     0.000,     0.000,   2
35604,'LD',1,  10,   1,    28.980,     7.890,     0.000,     0.000,     0.000,     0.000,   2
35804,'LD',1,   9,   1,    57.720,    16.260,     0.000,     0.000,     0.000,     0.000,   2
36001,'LD',1,   3,   1,    15.310,     5.070,     0.000,     0.000,     0.000,     0.000,   2
37601,'LD',1,   2,   1,    18.610,     6.110,     0.000,     0.000,     0.000,     0.000,   2
37602,'LD',1,   2,   2,     5.000,     1.640,     0.000,     0.000,     0.000,     0.000,   5
37602,'MI',0,   2,   2,     6.000,     1.800,     0.000,     0.000,     0.000,     0.000,   5
38001,'LD',1,   3,   1,     8.080,     2.650,     0.000,     0.000,     0.000,     0.000,   2
38004,'LD',1,   3,   1,    23.490,     7.720,     0.000,     0.000,     0.000,     0.000,   2
38204,'LD',1,  10,   1,    35.340,    12.130,     0.000,     0.000,     0.000,     0.000,   2
38804,'LD',1,   3,   1,     7.410,     1.300,     0.000,     0.000,     0.000,     0.000,   2
39471,'HL',1,   9,   1,    20.000,     7.200,     0.000,     0.000,     0.000,     0.000,   3
39472,'HL',1,   2,   2,    20.000,     7.200,     0.000,     0.000,     0.000,     0.000,   3
39473,'HL',1,   7,   1,    20.000,     7.200,     0.000,     0.000,     0.000,     0.000,   3
39601,'LD',1,   3,   1,    29.210,     6.600,     0.000,     0.000,     0.000,     0.000,   2
39672,'HL',1,   3,   1,     2.780,     1.000,     0.000,     0.000,     0.000,     0.000,   3
39675,'HL',1,   3,   1,     4.440,     1.600,     0.000,     0.000,     0.000,     0.000,   3
39801,'LD',1,   7,   2,    20.000,     6.570,     0.000,     0.000,     0.000,     0.000,   5
39801,'MI',0,   7,   2,     7.000,     2.100,     0.000,     0.000,     0.000,     0.000,   5
40004,'LD',1,   9,   1,    52.540,    19.420,     0.000,     0.000,     0.000,     0.000,   2
40204,'LD',1,   3,   1,    22.560,     5.380,     0.000,     0.000,     0.000,     0.000,   2
40404,'LD',1,   9,   1,    34.870,     8.360,     0.000,     0.000,     0.000,     0.000,   2
40602,'LD',1,  10,   2,     8.000,     2.620,     0.000,     0.000,     0.000,     0.000,   5
40801,'LD',1,   8,   1,    15.670,     6.200,     0.000,     0.000,     0.000,     0.000,   2
42004,'LD',1,   8,   1,    54.300,    17.940,     0.000,     0.000,     0.000,     0.000,   2
42204,'LD',1,  10,   1,    69.970,    23.210,     0.000,     0.000,     0.000,     0.000,   2
42604,'LD',1,   7,   1,    20.490,     6.740,     0.000,     0.000,     0.000,     0.000,   2
42802,'LD',1,   1,   2,    26.000,     8.540,     0.000,     0.000,     0.000,     0.000,   5
43604,'LD',1,   7,   1,    27.330,     7.890,     0.000,     0.000,     0.000,     0.000,   2
44671,'HL',1,   2,   2,     4.580,     1.640,     0.000,     0.000,     0.000,     0.000,   3
44672,'HL',1,   2,   2,     4.580,     1.640,     0.000,     0.000,     0.000,     0.000,   3
44673,'HL',1,   2,   2,    12.170,     4.380,     0.000,     0.000,     0.000,     0.000,   3
44804,'LD',1,   8,   1,    34.880,    11.790,     0.000,     0.000,     0.000,     0.000,   2
46210,'LD',1,   2,   2,    24.000,     7.880,     0.000,     0.000,     0.000,     0.000,   5
46214,'LD',1,   2,   2,    21.400,     7.030,     0.000,     0.000,     0.000,     0.000,   5
46224,'LD',1,   2,   2,    31.000,    10.180,     0.000,     0.000,     0.000,     0.000,   5
46501,'LD',1,   1,   1,     3.180,     1.060,     0.000,     0.000,     0.000,     0.000,   2
46804,'LD',1,   7,   1,    35.340,    12.020,     0.000,     0.000,     0.000,     0.000,   2
47004,'LD',1,   9,   1,    33.450,    11.660,     0.000,     0.000,     0.000,     0.000,   2
47402,'LD',1,   2,   2,    16.000,     5.250,     0.000,     0.000,     0.000,     0.000,   5
47601,'LD',1,   3,   1,     6.000,     2.000,     0.000,     0.000,     0.000,     0.000,   2
47802,'HL',1,  10,   1,     0.730,     0.260,     0.000,     0.000,     0.000,     0.000,   4
49478,'HL',1,   5,   1,    12.520,     4.510,     0.000,     0.000,     0.000,     0.000,   3
49604,'LD',1,  10,   1,    68.560,    26.860,     0.000,     0.000,     0.000,     0.000,   2
49804,'LD',1,   9,   1,    57.600,    29.210,     0.000,     0.000,     0.000,     0.000,   2
50004,'LD',1,   9,   1,    30.630,    11.070,     0.000,     0.000,     0.000,     0.000,   2
50276,'HL',1,   2,   2,     9.970,     3.590,     0.000,     0.000,     0.000,     0.000,   3
50604,'LD',1,   8,   1,    21.320,     8.580,     0.000,     0.000,     0.000,     0.000,   2
51471,'HL',0,   7,   1,     3.000,     1.080,     0.000,     0.000,     0.000,     0.000,   3
51472,'HL',0,   7,   1,     3.000,     1.080,     0.000,     0.000,     0.000,     0.000,   3
51473,'HL',1,   7,   1,    13.350,     4.800,     0.000,     0.000,     0.000,     0.000,   3
51474,'HL',1,   7,   1,    13.350,     4.800,     0.000,     0.000,     0.000,     0.000,   3
51771,'HL',1,   9,   1,     6.990,     2.510,     0.000,     0.000,     0.000,     0.000,   4
51801,'LD',1,   1,   1,    15.900,     5.180,     0.000,     0.000,     0.000,     0.000,   2
51804,'LD',1,   3,   1,    47.350,     0.940,     0.000,     0.000,     0.000,     0.000,   2
52204,'LD',1,   7,   1,    11.540,     3.530,     0.000,     0.000,     0.000,     0.000,   2
52604,'LD',1,   7,   1,    25.440,     7.890,     0.000,     0.000,     0.000,     0.000,   2
52804,'LD',1,   7,   1,    57.600,    10.720,     0.000,     0.000,     0.000,     0.000,   2
53004,'LD',1,   5,   1,    32.280,    12.020,     0.000,     0.000,     0.000,     0.000,   2
53204,'LD',1,   2,   1,    34.990,    13.080,     0.000,     0.000,     0.000,     0.000,   2
53404,'LD',1,   9,   1,    14.850,     4.880,     0.000,     0.000,     0.000,     0.000,   2
53604,'LD',1,   9,   1,    20.490,     4.240,     0.000,     0.000,     0.000,     0.000,   2
53804,'LD',1,   5,   1,    19.720,     5.690,     0.000,     0.000,     0.000,     0.000,   2
54404,'LD',1,   5,   1,    29.920,     9.310,     0.000,     0.000,     0.000,     0.000,   2
54801,'LD',1,   3,   2,     0.500,     0.160,     0.000,     0.000,     0.000,     0.000,   5
54801,'MI',0,   3,   2,     7.910,     2.370,     0.000,     0.000,     0.000,     0.000,   5
55004,'LD',1,   6,   1,    55.480,    16.490,     0.000,     0.000,     0.000,     0.000,   2
55201,'LD',1,   1,   1,    29.210,     9.660,     0.000,     0.000,     0.000,     0.000,   2
0 / END OF LOAD DATA, BEGIN GENERATOR DATA
 1151,'1 ',    21.000,     0.000,     0.000,     0.000,1.00000,    0,    60.000,   0.00000,   0.20000,   0.00000,   0.10000,1.00000,1,  100.0,    60.000,     0.000,   1,1.0000
 1231,'1 ',    11.000,     0.000,     0.000,     0.000,1.00000,    0,    31.500,   0.00000,   0.20000,   0.00000,   0.00000,1.00000,1,  100.0,    31.500,     0.000,   4,1.0000
 1251,'1 ',     6.800,     0.000,     0.000,     0.000,1.00000,    0,    19.450,   0.00000,   0.20000,   0.00000,   0.10000,1.00000,1,  100.0,    19.450,     0.000,   1,1.0000
 2231,'1 ',    21.000,     0.000,     0.000,     0.000,1.00000,    0,    60.000,   0.00000,   0.20000,   0.00000,   0.00000,1.00000,1,  100.0,    60.000,     0.000,   1,1.0000
 4071,'1 ',    24.800,     0.000,     0.000,     0.000,1.00000,    0,    71.000,   0.00000,   0.20000,   0.00000,   0.00000,1.00000,1,  100.0,    70.960,     0.000,   1,1.0000
10204,'1 ',     0.900,     0.000,     0.000,     0.000,1.00000,    0,     2.550,   0.00000,   0.20000,   0.00000,   0.20000,1.00000,1,  100.0,     2.550,     0.000,   4,1.0000
10204,'2 ',     0.200,     0.000,     0.000,     0.000,1.00000,    0,     0.660,   0.00000,   0.20000,   0.00000,   0.00000,1.00000,1,  100.0,     0.660,     0.000,   4,1.0000
10271,'1 ',    22.000,    12.568,    15.000,    -7.000,1.03600, 1021,    34.000,   0.00000,   0.22000,   0.00000,   0.00000,1.00000,1,   15.0,    22.000,     5.000,   3,1.0000
10272,'2 ',    22.000,    12.568,    15.000,    -7.000,1.03600, 1021,    34.000,   0.00000,   0.22000,   0.00000,   0.00000,1.00000,1,   15.0,    22.000,     5.000,   3,1.0000
10273,'3 ',    22.000,    12.568,    15.000,    -7.000,1.03600, 1021,    30.000,   0.00000,   0.22000,   0.00000,   0.00000,1.00000,1,   15.0,    22.000,     5.000,   3,1.0000
10274,'4 ',    23.000,    12.568,    15.000,    -7.000,1.03600, 1021,    34.000,   0.00000,   0.22000,   0.00000,   0.00000,1.00000,1,   15.0,    23.000,     5.000,   3,1.0000
10471,'1 ',   245.000,   129.369,   153.000,   -53.000,1.07500, 1042,   318.800,   0.00000,   0.22500,   0.00000,   0.00000,1.00000,1,  153.0,   270.000,    40.000,   3,1.0000
10472,'11',    90.000,     0.000,    60.000,   -30.000,1.07500, 1042,   100.900,   0.00000,   0.12500,   0.00000,   0.00000,1.00000,0,   60.0,    90.000,    20.000,   3,1.0000
10473,'12',    90.000,     0.000,    60.000,   -30.000,1.07500, 1042,   100.900,   0.00000,   0.12500,   0.00000,   0.00000,1.00000,0,   60.0,    90.000,    20.000,   3,1.0000
10474,'14',    90.000,     0.000,    60.000,   -30.000,1.07500, 1042,   100.900,   0.00000,   0.12500,   0.00000,   0.00000,1.00000,0,   60.0,    90.000,    20.000,   3,1.0000
10602,'1 ',     0.400,    -0.180,    -0.180,    -0.180,1.05000,    0,     1.200,   0.00000,   0.20000,   0.00000,   0.20000,1.00000,1,  100.0,     1.200,     0.000,   4,1.0000
10602,'2 ',     1.700,    -0.740,    -0.740,    -0.740,1.05000,    0,     4.850,   0.00000,   0.20000,   0.00000,   0.20000,1.00000,1,  100.0,     4.850,     0.000,   4,1.0000
10602,'3 ',     1.800,    -0.760,    -0.760,    -0.760,1.05000,    0,     5.000,   0.00000,   0.20000,   0.00000,   0.20000,1.00000,1,  100.0,     5.000,     0.000,   4,1.0000
11204,'1 ',     8.900,     0.000,     0.000,     0.000,1.05000,    0,    25.500,   0.00000,   0.20000,   0.00000,   0.20000,1.00000,1,  100.0,    25.500,     0.000,   2,1.0000
11671,'1 ',    76.500,    34.686,    50.000,   -35.000,1.07500, 1161,    93.750,   0.00000,   0.16500,   0.00000,   0.00000,1.00000,1,   50.0,    76.500,     0.000,   4,1.0000
11672,'2 ',    76.500,    34.686,    50.000,   -35.000,1.07500, 1161,    93.750,   0.00000,   0.16500,   0.00000,   0.00000,1.00000,1,   50.0,    76.500,     0.000,   4,1.0000
12804,'1 ',     3.000,     0.000,     0.000,     0.000,1.00000,    0,     8.500,   0.00000,   0.20000,   0.00000,   0.20000,1.00000,1,  100.0,     8.500,     0.000,   1,1.0000
12804,'2 ',     6.800,     0.000,     0.000,     0.000,1.00000,    0,    19.500,   0.00000,   0.20000,   0.00000,   0.00000,1.00000,1,  100.0,    19.500,     0.000,   1,1.0000
13404,'1 ',     0.200,     0.000,     0.000,     0.000,1.05000,    0,     0.660,   0.00000,   0.20000,   0.00000,   0.20000,1.00000,1,  100.0,     0.660,     0.000,   4,1.0000
14002,'3 ',     2.100,    -0.920,    -0.920,    -0.920,1.05000,    0,     6.000,   0.00000,   0.20000,   0.00000,   0.10000,1.00000,1,  100.0,     6.000,     0.000,   3,1.0000
14404,'1 ',     1.600,     0.000,     0.000,     0.000,1.00000,    0,     4.500,   0.00000,   0.20000,   0.00000,   0.00000,1.00000,1,  100.0,     4.500,     0.000,   2,1.0000
14604,'1 ',     0.000,     0.000,     1.000,    -1.000,1.05000,    0,     7.000,   0.00000,   0.15000,   0.00000,   0.10000,1.00000,0,    1.0,     0.000,     0.000,   5,1.0000
16302,'1 ',     1.200,     0.000,     0.000,     0.000,1.00000,    0,     3.400,   0.00000,   0.20000,   0.00000,   0.00000,1.00000,1,  100.0,     3.400,     0.000,   1,1.0000
16302,'2 ',     1.200,     0.000,     0.000,     0.000,1.00000,    0,     3.400,   0.00000,   0.20000,   0.00000,   0.00000,1.00000,1,  100.0,     3.400,     0.000,   1,1.0000
16302,'3 ',     2.400,     0.000,     0.000,     0.000,1.00000,    0,     6.800,   0.00000,   0.20000,   0.00000,   0.00000,1.00000,1,  100.0,     6.800,     0.000,   1,1.0000
16604,'1 ',     1.200,    -0.520,    -0.520,    -0.520,1.05000,    0,     3.400,   0.00000,   0.20000,   0.00000,   0.20000,1.00000,1,  100.0,     3.400,     0.000,   4,1.0000
16604,'2 ',     6.500,     0.000,     0.000,     0.000,1.05000,    0,    18.700,   0.00000,   0.20000,   0.00000,   0.20000,1.00000,1,  100.0,    18.700,     0.000,   4,1.0000
16873,'3 ',     8.000,     2.789,     7.000,    -1.000,1.05700, 1681,    11.500,   0.00000,   0.25000,   0.00000,   0.00000,1.00000,1,    7.0,     8.000,     2.000,   3,1.0000
17004,'4 ',     1.200,     0.000,     0.000,     0.000,1.05000,    0,     3.450,   0.00000,   0.20000,   0.00000,   0.20000,1.00000,1,  100.0,     3.400,     0.000,   2,1.0000
17004,'5 ',     1.100,    -0.470,    -0.470,    -0.470,1.05000,    0,     3.200,   0.00000,   0.20000,   0.00000,   0.20000,1.00000,1,  100.0,     3.100,     0.000,   4,1.0000
17073,'3 ',    22.500,     3.669,     7.000,   -10.000,1.05000, 1701,    30.000,   0.00000,   0.20000,   0.00000,   0.00000,1.00000,1,    7.0,    22.500,     5.000,   3,1.0000
17074,'4 ',    22.500,     3.669,     7.000,   -10.000,1.05000, 1701,    30.000,   0.00000,   0.20000,   0.00000,   0.00000,1.00000,1,    7.0,    22.500,     5.000,   3,1.0000
17671,'1 ',    10.000,     3.669,     7.000,    -3.000,1.05000, 1701,    12.500,   0.00000,   0.15000,   0.00000,   0.00000,1.00000,1,    7.0,    10.000,     3.000,   3,1.0000
17672,'2 ',    10.000,     3.669,     7.000,    -3.000,1.05000, 1701,    12.500,   0.00000,   0.13500,   0.00000,   0.00000,1.00000,1,    7.0,    10.000,     3.000,   3,1.0000
18404,'1 ',     1.800,     0.000,     0.000,     0.000,1.00000,    0,     5.200,   0.00000,   0.20000,   0.00000,   0.20000,1.00000,1,  100.0,     5.200,     0.000,   2,1.0000
19004,'1 ',     0.900,     0.000,     0.000,     0.000,1.05000,    0,     2.550,   0.00000,   0.25400,   0.00000,   0.10000,1.00000,1,  100.0,     2.550,     0.000,   2,1.0000
19402,'1 ',     8.300,   -12.000,     6.000,   -12.000,1.00000,    0,    25.000,   0.00000,   0.20000,   0.00000,   0.10000,1.00000,1,    6.0,    25.000,     0.000,   1,1.0000
19471,'1 ',   129.700,    49.256,    75.000,   -50.000,1.07500, 1941,   153.000,   0.00000,   0.15300,   0.00000,   0.00000,1.00000,1,   75.0,   130.000,    60.000,   4,1.0000
22204,'1 ',     1.600,    -0.700,    -0.700,    -0.700,1.00000,    0,     4.600,   0.00000,   0.20000,   0.00000,   0.20000,1.00000,1,  100.0,     4.600,     0.000,   3,1.0000
22204,'2 ',     2.100,    -0.920,    -0.920,    -0.920,1.00000,    0,     6.000,   0.00000,   0.20000,   0.00000,   0.20000,1.00000,1,  100.0,     6.000,     0.000,   3,1.0000
22204,'3 ',     2.100,     0.000,     0.000,     0.000,1.00000,    0,     5.950,   0.00000,   0.20000,   0.00000,   0.20000,1.00000,1,  100.0,     5.950,     0.000,   4,1.0000
27204,'5 ',     4.000,     0.000,     1.000,    -1.000,1.00000,    0,     5.000,   0.00000,   0.27000,   0.00000,   0.10000,1.00000,0,    1.0,     4.000,     0.000,   3,1.0000
27471,'1 ',    60.000,     0.000,    42.000,    -3.000,1.07500, 2741,    75.000,   0.00000,   0.16000,   0.00000,   0.00000,1.00000,0,   42.0,    60.000,    25.000,   3,1.0000
27472,'2 ',    60.000,     0.000,    40.000,    -3.000,1.07500, 2741,    75.000,   0.00000,   0.16000,   0.00000,   0.00000,1.00000,0,   40.0,    60.000,    25.000,   3,1.0000
27473,'3 ',    96.500,    77.836,    82.000,   -48.000,1.05000, 2742,   150.000,   0.00000,   0.14600,   0.00000,   0.00000,1.00000,1,   82.0,   120.000,    30.000,   3,1.0000
27804,'1 ',     1.200,    -0.500,    -0.500,    -0.500,1.00000,    0,     3.300,   0.00000,   0.20000,   0.00000,   0.20000,1.00000,1,  100.0,     3.300,     0.000,   4,1.0000
27804,'2 ',     0.200,     0.000,     0.000,     0.000,1.00000,    0,     0.675,   0.00000,   0.20000,   0.00000,   0.20000,1.00000,1,  100.0,     0.675,     0.000,   2,1.0000
28002,'1 ',     5.300,    -2.290,    -2.290,    -2.290,1.00000,    0,    15.000,   0.00000,   0.20000,   0.00000,   0.10000,1.00000,1,  100.0,    15.000,     0.000,   4,1.0000
29671,'CT',   230.000,    75.342,   173.000,  -106.000,1.07500, 4462,   288.000,   0.00000,   0.14500,   0.00000,   0.00000,1.00000,1,  173.0,   230.000,   138.000,   4,1.0000
29672,'ST',   120.000,    39.195,    90.000,   -47.000,1.07500, 4462,   150.000,   0.00000,   0.15500,   0.00000,   0.00000,1.00000,1,   90.0,   120.000,    89.000,   4,1.0000
30671,'1 ',    15.000,     9.451,    13.000,    -4.000,1.06000, 3061,    21.400,   0.00000,   0.16000,   0.00000,   0.00000,1.00000,1,    3.0,    15.000,     4.000,   3,1.0000
30671,'2 ',     4.000,     2.520,     3.000,    -1.000,1.06000, 3061,     5.700,   0.00000,   0.14000,   0.00000,   0.00000,1.00000,1,    3.0,     4.000,     1.000,   3,1.0000
31004,'1 ',     0.900,     0.000,     0.000,     0.000,1.00000,    0,     2.550,   0.00000,   0.20000,   0.00000,   0.20000,1.00000,1,  100.0,     2.550,     0.000,   2,1.0000
31271,'1 ',   399.000,    87.100,   200.000,  -114.000,1.07500, 4462,   500.000,   0.00000,   0.19000,   0.00000,   0.00000,1.00000,1,  200.0,   399.000,   163.000,   4,1.0000
32604,'1 ',     0.000,     0.000,     1.000,    -1.000,1.05000,    0,    15.000,   0.00000,   0.15000,   0.00000,   0.10000,1.00000,0,    1.0,     0.000,     0.000,   5,1.0000
33004,'1 ',     3.300,     0.000,     0.000,     0.000,1.00000,    0,     9.350,   0.00000,   0.20000,   0.00000,   0.20000,1.00000,1,  100.0,     9.350,     0.000,   2,1.0000
35078,'8 ',    99.600,    23.665,    62.000,   -40.000,1.05000, 3501,   118.000,   0.00000,   0.13700,   0.00000,   0.00000,1.00000,1,   62.0,   100.000,    40.000,   3,1.0000
35804,'1 ',     5.300,    -2.290,    -2.290,    -2.290,1.05000,    0,    15.000,   0.00000,   0.20000,   0.00000,   0.20000,1.00000,1,  100.0,    15.000,     0.000,   4,1.0000
35804,'2 ',     1.700,    -0.760,    -0.760,    -0.760,1.05000,    0,     5.300,   0.00000,   0.20000,   0.00000,   0.20000,1.00000,1,  100.0,     4.980,     0.000,   4,1.0000
35804,'3 ',     4.200,    -1.840,    -1.840,    -1.840,1.05000,    0,    12.000,   0.00000,   0.20000,   0.00000,   0.20000,1.00000,1,  100.0,    12.000,     0.000,   4,1.0000
35804,'4 ',     0.900,     0.000,     0.000,     0.000,1.05000,    0,     2.550,   0.00000,   0.20000,   0.00000,   0.20000,1.00000,1,  100.0,     2.550,     0.000,   4,1.0000
35804,'5 ',     0.900,     0.000,     0.000,     0.000,1.05000,    0,     2.550,   0.00000,   0.20000,   0.00000,   0.20000,1.00000,1,  100.0,     2.450,     0.000,   4,1.0000
38204,'1 ',     3.700,     0.000,     0.000,     0.000,1.00000,    0,    10.500,   0.00000,   0.20000,   0.00000,   0.20000,1.00000,1,  100.0,    10.500,     0.000,   4,1.0000
38204,'2 ',     1.600,     0.000,     0.000,     0.000,1.00000,    0,     4.500,   0.00000,   0.20000,   0.00000,   0.20000,1.00000,1,  100.0,     4.500,     0.000,   4,1.0000
39471,'1 ',   305.000,    84.538,   160.000,   -70.000,1.07500, 3944,   359.000,   0.00000,   0.17900,   0.00000,   0.00000,1.00000,1,  160.0,   305.000,   115.000,   3,1.0000
39472,'2 ',   305.000,    20.974,   160.000,   -70.000,1.07500, 3954,   359.000,   0.00000,   0.17900,   0.00000,   0.00000,1.00000,1,  160.0,   305.000,   115.000,   3,1.0000
39473,'3 ',   305.000,    84.538,   160.000,   -70.000,1.07500, 3944,   359.000,   0.00000,   0.17900,   0.00000,   0.00000,1.00000,1,  160.0,   305.000,   115.000,   3,1.0000
39672,'2 ',    27.800,     7.954,    15.000,     0.000,1.05800, 3961,    40.000,   0.00000,   0.12200,   0.00000,   0.00000,1.00000,1,   15.0,    30.000,    10.000,   3,1.0000
39675,'GT',    79.400,    31.815,    60.000,   -19.000,1.05800, 3961,   100.900,   0.00000,   0.12500,   0.00000,   0.00000,1.00000,1,   60.0,    90.000,    30.000,   3,1.0000
42404,'1 ',    13.500,     0.000,     5.000,     0.000,1.05000,    0,    20.000,   0.00000,   0.11700,   0.00000,   0.10500,1.07000,1,    5.0,    15.000,     6.000,   3,1.0000
42404,'2 ',    13.500,     0.000,     5.000,     0.000,1.05000,    0,    20.000,   0.00000,   0.11700,   0.00000,   0.10500,1.07000,1,    5.0,    15.000,     6.000,   3,1.0000
42404,'3 ',    13.500,     0.000,     5.000,     0.000,1.05000,    0,    20.000,   0.00000,   0.11700,   0.00000,   0.10000,1.07000,1,    5.0,    15.000,     6.000,   3,1.0000
42474,'4 ',   107.600,    23.953,    55.000,   -20.000,1.07500, 4462,   132.100,   0.00000,   0.13900,   0.00000,   0.00000,1.00000,1,   55.0,   118.000,    40.000,   3,1.0000
42475,'5 ',   109.000,     0.000,    55.000,   -20.000,1.07500, 4462,   132.100,   0.00000,   0.13900,   0.00000,   0.00000,1.00000,0,   55.0,   109.000,    20.000,   3,1.0000
44471,'1 ',    15.000,     2.799,     9.000,   -10.000,1.07000, 4441,    18.800,   0.00000,   0.27000,   0.00000,   0.00000,1.00000,1,    3.0,    15.000,     5.000,   3,1.0000
44471,'4 ',     4.000,     0.000,     3.000,    -1.000,1.07000, 4441,     5.000,   0.00000,   0.27000,   0.00000,   0.00000,1.00000,0,    3.0,     4.000,     1.000,   3,1.0000
44472,'2 ',    15.000,     8.398,     9.000,   -10.000,1.07000, 4441,    18.800,   0.00000,   0.27000,   0.00000,   0.00000,1.00000,1,    9.0,    15.000,     5.000,   3,1.0000
44671,'1 ',    99.600,    28.308,    65.000,   -43.000,1.07500, 4462,   150.000,   0.00000,   0.16700,   0.00000,   0.00000,1.00000,1,   65.0,   120.000,    60.000,   3,1.0000
44672,'2 ',    99.600,    28.743,    66.000,   -46.000,1.07500, 4462,   150.000,   0.00000,   0.16700,   0.00000,   0.00000,1.00000,1,   66.0,   120.000,    60.000,   3,1.0000
44673,'3 ',   243.400,    43.550,   100.000,   -48.000,1.07500, 4462,   318.800,   0.00000,   0.22500,   0.00000,   0.00000,1.00000,1,  100.0,   270.000,    60.000,   3,1.0000
46210,'1 ',     0.000,     0.000,     1.000,    -1.000,1.05000,    0,    20.000,   0.00000,   0.20000,   0.00000,   0.10000,1.00000,0,    1.0,     0.000,     0.000,   5,1.0000
47802,'1 ',    24.500,     0.000,     0.000,     0.000,1.00000,    0,    70.000,   0.00000,   0.20000,   0.00000,   0.10000,1.00000,1,  100.0,    70.000,     0.000,   4,1.0000
47802,'2 ',     8.700,     0.000,     0.000,     0.000,1.00000,    0,    24.800,   0.00000,   0.20000,   0.00000,   0.10000,1.00000,1,  100.0,    24.800,     0.000,   4,1.0000
49478,'8 ',   149.500,    61.603,    93.000,   -59.000,1.07500, 4942,   177.000,   0.00000,   0.12100,   0.00000,   0.00000,1.00000,1,   93.0,   150.000,    55.000,   3,1.0000
49604,'1 ',     1.100,    -0.460,    -0.460,    -0.460,1.05000,    0,     3.000,   0.00000,   0.20000,   0.00000,   0.20000,1.00000,1,  100.0,     3.000,     0.000,   4,1.0000
49604,'2 ',     1.100,     0.000,     0.000,     0.000,1.05000,    0,     3.000,   0.00000,   0.20000,   0.00000,   0.20000,1.00000,1,  100.0,     3.000,     0.000,   4,1.0000
50004,'1 ',     2.700,    -1.170,    -1.170,    -1.170,1.05000,    0,     7.650,   0.00000,   0.20000,   0.00000,   0.20000,1.00000,1,  100.0,     7.650,     0.000,   2,1.0000
50274,'14',   140.400,    32.663,    75.000,   -40.000,1.07500, 4462,   170.000,   0.00000,   0.16200,   0.00000,   0.00000,1.00000,1,   75.0,   150.000,    50.000,   3,1.0000
50275,'15',   140.400,    32.663,    75.000,   -60.000,1.07500, 4462,   170.000,   0.00000,   0.16200,   0.00000,   0.00000,1.00000,1,   75.0,   150.000,    50.000,   3,1.0000
50276,'16',   169.100,    34.840,    80.000,   -40.000,1.07500, 4462,   230.000,   0.00000,   0.15800,   0.00000,   0.00000,1.00000,1,   80.0,   170.000,    30.000,   3,1.0000
51471,'1 ',    60.000,     0.000,    25.000,   -10.000,1.07500, 5142,    75.000,   0.00000,   0.13500,   0.00000,   0.00000,1.00000,0,   25.0,    60.000,    30.000,   3,1.0000
51472,'2 ',    60.000,     0.000,    25.000,   -10.000,1.07500, 5142,    75.000,   0.00000,   0.13500,   0.00000,   0.00000,1.00000,0,   25.0,    60.000,    30.000,   3,1.0000
51473,'3 ',   223.400,    39.515,   110.000,   -45.000,1.07500, 5142,   294.000,   0.00000,   0.20700,   0.00000,   0.00000,1.00000,1,  110.0,   256.000,    40.000,   3,1.0000
51474,'4 ',   223.400,    39.515,   110.000,   -45.000,1.07500, 5142,   294.000,   0.00000,   0.20700,   0.00000,   0.00000,1.00000,1,  110.0,   256.000,    40.000,   3,1.0000
51771,'CT',   258.000,    86.299,   175.000,   -92.000,1.07500, 5172,   292.000,   0.00000,   0.17000,   0.00000,   0.00000,1.00000,1,  175.0,   258.000,   155.000,   4,1.0000
51772,'ST',   140.000,    49.314,   100.000,   -52.000,1.07500, 5172,   166.000,   0.00000,   0.13100,   0.00000,   0.00000,1.00000,1,  100.0,   140.000,   111.000,   4,1.0000
52071,'1 ',    28.888,    13.334,    40.000,   -35.000,1.08000,    0,    87.500,   0.00000,   0.15000,   0.00000,   0.00000,1.00000,1,   40.0,    73.000,   -73.000,   3,1.0000
52071,'2 ',    28.888,    13.334,    40.000,   -35.000,1.08000,    0,    87.500,   0.00000,   0.15000,   0.00000,   0.00000,1.00000,1,   40.0,    73.000,   -73.000,   3,1.0000
52071,'3 ',    28.888,    13.334,    40.000,   -35.000,1.08000,    0,    87.500,   0.00000,   0.15000,   0.00000,   0.00000,1.00000,1,   40.0,    73.000,   -73.000,   3,1.0000
52071,'4 ',    28.888,    13.334,    40.000,   -35.000,1.08000,    0,    87.500,   0.00000,   0.15000,   0.00000,   0.00000,1.00000,1,   40.0,    73.000,   -73.000,   3,1.0000
52204,'1 ',     4.400,     0.000,     0.000,     0.000,1.00000,    0,    12.600,   0.00000,   0.20000,   0.00000,   0.20000,1.00000,1,  100.0,    12.600,     0.000,   4,1.0000
52604,'1 ',     1.500,    -0.660,    -0.660,    -0.660,1.05000,    0,     4.300,   0.00000,   0.20000,   0.00000,   0.20000,1.00000,1,  100.0,     4.290,     0.000,   4,1.0000
52604,'2 ',     2.700,     0.000,     0.000,     0.000,1.05000,    0,     7.600,   0.00000,   0.20000,   0.00000,   0.20000,1.00000,1,  100.0,     7.600,     0.000,   4,1.0000
52804,'1 ',     5.300,    -2.290,    -2.290,    -2.290,1.05000,    0,    15.000,   0.00000,   0.20000,   0.00000,   0.20000,1.00000,1,  100.0,    15.000,     0.000,   4,1.0000
52804,'2 ',     2.400,    -1.040,    -1.040,    -1.040,1.05000,    0,     6.800,   0.00000,   0.20000,   0.00000,   0.20000,1.00000,1,  100.0,     6.800,     0.000,   2,1.0000
52804,'3 ',     1.400,    -0.610,    -0.610,    -0.610,1.05000,    0,     4.000,   0.00000,   0.20000,   0.00000,   0.20000,1.00000,1,  100.0,     4.000,     0.000,   4,1.0000
52804,'5 ',     1.800,     0.000,     0.000,     0.000,1.05000,    0,     5.100,   0.00000,   0.20000,   0.00000,   0.20000,1.00000,1,  100.0,     5.100,     0.000,   2,1.0000
53404,'1 ',     2.100,    -0.910,    -0.910,    -0.910,1.05000,    0,     6.000,   0.00000,   0.20000,   0.00000,   0.20000,1.00000,1,  100.0,     5.940,     0.000,   3,1.0000
53604,'1 ',     1.800,    -0.760,    -0.760,    -0.760,1.05000,    0,     5.000,   0.00000,   0.20000,   0.00000,   0.20000,1.00000,1,  100.0,     5.000,     0.000,   4,1.0000
53604,'2 ',     1.700,    -0.730,    -0.730,    -0.730,1.05000,    0,     4.800,   0.00000,   0.20000,   0.00000,   0.20000,1.00000,1,  100.0,     4.800,     0.000,   4,1.0000
53604,'3 ',     4.900,     0.000,     0.000,     0.000,1.05000,    0,    14.000,   0.00000,   0.20000,   0.00000,   0.20000,1.00000,1,  100.0,    14.000,     0.000,   4,1.0000
53604,'4 ',    11.000,     0.000,     0.000,     0.000,1.05000,    0,    31.500,   0.00000,   0.20000,   0.00000,   0.20000,1.00000,1,  100.0,    31.500,     0.000,   4,1.0000
54801,'1 ',     0.000,     0.000,     1.000,    -1.000,1.05000,    0,    10.000,   0.00000,   0.13000,   0.00000,   0.10000,1.00000,0,    1.0,     0.000,     0.000,   5,1.0000
55004,'1 ',     4.100,    -1.800,    -1.800,    -1.800,1.05000,    0,    11.800,   0.00000,   0.20000,   0.00000,   0.20000,1.00000,1,  100.0,    11.800,     0.000,   4,1.0000
55004,'2 ',     7.100,     0.000,     0.000,     0.000,1.05000,    0,    20.250,   0.00000,   0.20000,   0.00000,   0.20000,1.00000,1,  100.0,    20.250,     0.000,   4,1.0000
0 / END OF GENERATOR DATA, BEGIN BRANCH DATA
   11, 42404,'1 ',   0.00360,   0.00391,   0.00207, 9999.00, 9999.00,10998.90,  0.00000,  0.00000,  0.00000,  0.00000,1,   1.00,   2,1.0000
   12,-25404,'1 ',   0.00534,   0.00795,   0.00407, 9999.00, 9999.00,10998.90,  0.00000,  0.00000,  0.00000,  0.00000,1,   1.40,   1,1.0000
   12,-25404,'3 ',   0.00594,   0.00866,   0.00435, 9999.00, 9999.00,10998.90,  0.00000,  0.00000,  0.00000,  0.00000,1,   0.00,   1,1.0000
   12, 46504,'1 ',   0.02132,   0.02114,   0.00329, 9999.00, 9999.00,10998.90,  0.00000,  0.00000,  0.00000,  0.00000,1,   5.14,   1,1.0000
   12, 46504,'2 ',   0.01937,   0.01703,   0.00256, 9999.00, 9999.00,10998.90,  0.00000,  0.00000,  0.00000,  0.00000,1,   3.96,   1,1.0000
   41, -1741,'1 ',   0.00260,   0.00480,   0.07610,  100.00,  100.00,  107.00,  0.00000,  0.00000,  0.00000,  0.00000,0,   5.00,   1,1.0000
   41, -3871,'1 ',   0.00210,   0.00380,   0.06090,  100.00,  100.00,  107.00,  0.00000,  0.00000,  0.00000,  0.00000,1,   4.00,   1,1.0000
   51,  2541,'1 ',   0.00310,   0.00960,   0.03810,  140.00,  140.00,  252.00,  0.00000,  0.00000,  0.00000,  0.00000,1,   6.00,   1,1.0000
   51,  4651,'1 ',   0.00280,   0.00880,   0.03500,  140.00,  140.00,  252.00,  0.00000,  0.00000,  0.00000,  0.00000,1,   5.50,   1,1.0000
 1021,  2121,'1 ',   0.02830,   0.06260,   0.00590,  126.00,  126.00,  138.60,  0.00000,  0.00000,  0.00000,  0.00000,1,  18.20,   1,1.0000
 1021,  2361,'1 ',   0.05100,   0.11280,   0.01050,  126.00,  126.00,  138.60,  0.00000,  0.00000,  0.00000,  0.00000,1,  32.80,   1,1.0000
 1021,  3281,'1 ',   0.01480,   0.03270,   0.00310,  126.00,  126.00,  138.60,  0.00000,  0.00000,  0.00000,  0.00000,1,   9.50,   1,1.0000
 1021,  3541,'1 ',   0.01390,   0.03810,   0.01200,  126.00,  126.00,  138.60,  0.00000,  0.00000,  0.00000,  0.00000,1,  11.70,   1,1.0000
 1041,  5481,'1 ',   0.00490,   0.01070,   0.00100,  126.00,  126.00,  138.60,  0.00000,  0.00000,  0.00000,  0.00000,1,   3.10,   1,1.0000
 1042,  3202,'1 ',   0.00300,   0.02220,   0.03350,  518.00,  518.00,  569.80,  0.00000,  0.00000,  0.00000,  0.00000,1,  25.60,   1,1.0000
 1042,  3202,'2 ',   0.00300,   0.02220,   0.03350,  518.00,  518.00,  569.80,  0.00000,  0.00000,  0.00000,  0.00000,1,  25.60,   1,1.0000
 1042,  4722,'1 ',   0.00320,   0.02340,   0.03530,  518.00,  518.00,  569.80,  0.00000,  0.00000,  0.00000,  0.00000,1,  27.00,   1,1.0000
 1061, 10619,'1 ',   0.00050,   0.00120,   0.00010,   57.00,   57.00,   62.70,  0.00000,  0.00000,  0.00000,  0.00000,1,   0.30,   1,1.0000
 1081,  3281,'1 ',   0.00390,   0.01240,   0.00390,   68.00,  112.00,  121.00,  0.00000,  0.00000,  0.00000,  0.00000,1,   3.80,   1,1.0000
 1101,  2161,'1 ',   0.00310,   0.00690,   0.00060,   45.00,  126.00,  138.60,  0.00000,  0.00000,  0.00000,  0.00000,1,   2.00,   1,1.0000
 1121,  1151,'1 ',   0.00870,   0.02700,   0.10800,  140.00,  140.00,  252.00,  0.00000,  0.00000,  0.00000,  0.00000,1,  17.00,   1,1.0000
 1121,  1301,'1 ',   0.01260,   0.08920,   0.00810,  164.00,  164.00,  180.40,  0.00000,  0.00000,  0.00000,  0.00000,1,  25.00,   1,1.0000
 1121,  1541,'1 ',   0.03520,   0.07770,   0.00730,  126.00,  126.00,  138.60,  0.00000,  0.00000,  0.00000,  0.00000,1,  22.60,   1,1.0000
 1121,  4901,'1 ',   0.00350,   0.00770,   0.00080,   57.00,   57.00,   62.70,  0.00000,  0.00000,  0.00000,  0.00000,1,   2.20,   1,1.0000
 1121,  4911,'2 ',   0.00370,   0.00830,   0.00080,   57.00,   57.00,   62.70,  0.00000,  0.00000,  0.00000,  0.00000,1,   2.40,   1,1.0000
 1122,  1742,'1 ',   0.00620,   0.04620,   0.06970,  518.00,  518.00,  569.80,  0.00000,  0.00000,  0.00000,  0.00000,1,  53.30,   1,1.0000
 1122,  2742,'1 ',   0.01020,   0.07610,   0.11480,  275.00,  518.00,  569.80,  0.00000,  0.00000,  0.00000,  0.00000,1,  87.81,   1,1.0000
 1141,  3501,'1 ',   0.05400,   0.12280,   0.01160,   68.00,  126.00,  138.60,  0.00000,  0.00000,  0.00000,  0.00000,1,  35.80,   1,1.0000
 1141,  4941,'1 ',   0.02250,   0.07210,   0.00740,  131.00,  131.00,  144.10,  0.00000,  0.00000,  0.00000,  0.00000,1,  21.60,   1,1.0000
 1141, 11461,'1 ',   0.00000,   0.00010,   0.00000,  126.00,  126.00,  138.60,  0.00000,  0.00000,  0.00000,  0.00000,1,   0.00,   1,1.0000
 1161,  1171,'1 ',   0.00060,   0.00160,   0.00640,  140.00,  140.00,  252.00,  0.00000,  0.00000,  0.00000,  0.00000,1,   1.00,   1,1.0000
 1161,  1191,'2 ',   0.00060,   0.00160,   0.00640,  140.00,  140.00,  252.00,  0.00000,  0.00000,  0.00000,  0.00000,1,   1.00,   1,1.0000
...